data_cif

_audit_creation_method 'generated by GULP'

_symmetry_space_group_name_H-M 'P 1'
_symmetry_Int_Tables_number 1
_symmetry_cell_setting triclinic

_cell_length_a 3.9043
_cell_length_b 3.9043
_cell_length_c 12.5990
_cell_angle_alpha 90.0000
_cell_angle_beta 90.0000
_cell_angle_gamma 90.0000

loop_
_atom_site_label
_atom_site_fract_x
_atom_site_fract_y
_atom_site_fract_z
_atom_site_occupancy
 Li 0.00000 0.50000 0.00000 1.0000
 Li 0.50000 0.00000 0.00000 1.0000
 Li 0.50000 1.00000 0.50000 1.0000
 Li 0.00000 0.50000 0.50000 1.0000
 Li 1.00000 0.00000 0.15304 1.0000
 Li 0.00000 0.00000 0.84696 1.0000
 Li 0.50000 0.50000 0.65304 1.0000
 Li 0.50000 0.50000 0.34696 1.0000
 Cl 0.00000 1.00000 0.34637 1.0000
 Cl 0.00000 1.00000 0.65363 1.0000
 Cl 0.50000 0.50000 0.84637 1.0000
 Cl 0.50000 0.50000 0.15363 1.0000
 O 1.00000 0.00000 0.00000 1.0000
 O 0.50000 0.50000 0.50000 1.0000
