data_cif

_audit_creation_method 'generated by GULP'

_symmetry_space_group_name_H-M 'P 1'
_symmetry_Int_Tables_number 1
_symmetry_cell_setting triclinic

_cell_length_a 7.7384
_cell_length_b 5.9300
_cell_length_c 11.6909
_cell_angle_alpha 90.0013
_cell_angle_beta 89.9993
_cell_angle_gamma 90.0011

loop_
_atom_site_label
_atom_site_fract_x
_atom_site_fract_y
_atom_site_fract_z
_atom_site_occupancy
 Li 0.63333 0.52653 0.62577 1.0000
 Li 0.36204 0.57358 0.36697 1.0000
 Li 0.86203 0.02651 0.36699 1.0000
 Li 0.13333 0.07357 0.62577 1.0000
 Li 0.36204 0.57359 0.12577 1.0000
 Li 0.63332 0.52657 0.86696 1.0000
 Li 0.13332 0.07358 0.86697 1.0000
 Li 0.86204 0.02654 0.12578 1.0000
 Li 0.63334 0.07356 0.86697 1.0000
 Li 0.36192 0.02659 0.12579 1.0000
 Li 0.86191 0.57354 0.12578 1.0000
 Li 0.13334 0.52658 0.86696 1.0000
 Li 0.36191 0.02659 0.36696 1.0000
 Li 0.63335 0.07352 0.62579 1.0000
 Li 0.13335 0.52658 0.62578 1.0000
 Li 0.86191 0.57351 0.36696 1.0000
 Li 0.37856 0.30004 0.74637 1.0000
 Li 0.61676 0.80020 0.24638 1.0000
 Li 0.11676 0.79991 0.24638 1.0000
 Li 0.87855 0.30008 0.74637 1.0000
 Cl 0.33582 0.80008 0.74638 1.0000
 Cl 0.65951 0.30003 0.24637 1.0000
 Cl 0.15951 0.30008 0.24637 1.0000
 Cl 0.83582 0.80006 0.74638 1.0000
 Cl 0.37884 0.30006 0.97079 1.0000
 Cl 0.61647 0.80005 0.02196 1.0000
 Cl 0.11647 0.80008 0.02196 1.0000
 Cl 0.87884 0.30007 0.97079 1.0000
 Cl 0.61647 0.80005 0.47080 1.0000
 Cl 0.37884 0.30006 0.52195 1.0000
 Cl 0.87885 0.30006 0.52195 1.0000
 Cl 0.11647 0.80007 0.47079 1.0000
 O 0.62569 0.30005 0.74637 1.0000
 O 0.36962 0.80008 0.24638 1.0000
 O 0.86962 0.80004 0.24638 1.0000
 O 0.12569 0.30007 0.74637 1.0000
