data_cif

_audit_creation_method 'generated by GULP'

_symmetry_space_group_name_H-M 'P 1'
_symmetry_Int_Tables_number 1
_symmetry_cell_setting triclinic

_cell_length_a 7.1969
_cell_length_b 6.7647
_cell_length_c 7.2117
_cell_angle_alpha 90.0135
_cell_angle_beta 95.4091
_cell_angle_gamma 89.9876

loop_
_atom_site_label
_atom_site_fract_x
_atom_site_fract_y
_atom_site_fract_z
_atom_site_occupancy
 Cl 0.83052 0.24256 0.33877 1.0000
 Cl 0.07518 0.74173 0.58339 1.0000
 Cl 0.65751 0.74257 0.16663 1.0000
 Cl 0.41334 0.24175 0.92257 1.0000
 Cl 0.84469 0.39024 0.80678 1.0000
 Cl 0.18998 0.59319 0.15281 1.0000
 Cl 0.64402 0.89034 0.69877 1.0000
 Cl 0.29815 0.09325 0.35333 1.0000
 Li 0.99042 0.91930 0.26672 1.0000
 Li 0.97148 0.04064 0.73786 1.0000
 Li 0.49788 0.41944 0.23898 1.0000
 Li 0.51727 0.54052 0.76812 1.0000
 Li 0.26018 0.94145 0.02721 1.0000
 Li 0.73027 0.06574 0.00569 1.0000
 Li 0.22842 0.44137 0.47892 1.0000
 Li 0.75805 0.56585 0.50000 1.0000
 Li 0.05944 0.26296 0.06553 1.0000
 Li 0.93037 0.72051 0.93939 1.0000
 Li 0.42871 0.76297 0.44061 1.0000
 Li 0.55837 0.22051 0.56611 1.0000
 O 0.00104 0.99172 0.99635 1.0000
 O 0.48748 0.49178 0.50954 1.0000
