# generated using pymatgen
data_Ru
_symmetry_space_group_name_H-M   'P 1'
_cell_length_a   7.22043500
_cell_length_b   7.22043513
_cell_length_c   34.78900900
_cell_angle_alpha   90.00000000
_cell_angle_beta   90.00000000
_cell_angle_gamma   59.99999602
_symmetry_Int_Tables_number   1
_chemical_formula_structural   Ru
_chemical_formula_sum   Ru112
_cell_volume   1570.72228442
_cell_formula_units_Z   112
loop_
 _symmetry_equiv_pos_site_id
 _symmetry_equiv_pos_as_xyz
  1  'x, y, z'
loop_
 _atom_site_type_symbol
 _atom_site_label
 _atom_site_symmetry_multiplicity
 _atom_site_fract_x
 _atom_site_fract_y
 _atom_site_fract_z
 _atom_site_occupancy
  Ru  Ru0  1  0.666667  0.666666  0.029292  1
  Ru  Ru1  1  0.666667  0.666666  0.151017  1
  Ru  Ru2  1  0.666667  0.666666  0.274940  1
  Ru  Ru3  1  0.666667  0.666666  0.399493  1
  Ru  Ru4  1  0.526018  0.377931  0.027828  1
  Ru  Ru5  1  0.524151  0.380061  0.150568  1
  Ru  Ru6  1  0.523752  0.381259  0.274882  1
  Ru  Ru7  1  0.524621  0.381756  0.398977  1
  Ru  Ru8  1  0.377931  0.096051  0.027828  1
  Ru  Ru9  1  0.380061  0.095787  0.150568  1
  Ru  Ru10  1  0.381259  0.094990  0.274882  1
  Ru  Ru11  1  0.381756  0.093622  0.398977  1
  Ru  Ru12  1  0.236986  0.800753  0.026981  1
  Ru  Ru13  1  0.238166  0.808724  0.150735  1
  Ru  Ru14  1  0.238540  0.809321  0.274583  1
  Ru  Ru15  1  0.235088  0.809871  0.398749  1
  Ru  Ru16  1  0.096051  0.526017  0.027828  1
  Ru  Ru17  1  0.095787  0.524150  0.150568  1
  Ru  Ru18  1  0.094990  0.523751  0.274882  1
  Ru  Ru19  1  0.093622  0.524620  0.398977  1
  Ru  Ru20  1  0.962262  0.236986  0.026981  1
  Ru  Ru21  1  0.953108  0.238166  0.150735  1
  Ru  Ru22  1  0.952139  0.238540  0.274583  1
  Ru  Ru23  1  0.955041  0.235088  0.398749  1
  Ru  Ru24  1  0.800753  0.962262  0.026981  1
  Ru  Ru25  1  0.808724  0.953108  0.150735  1
  Ru  Ru26  1  0.809321  0.952139  0.274583  1
  Ru  Ru27  1  0.809871  0.955041  0.398749  1
  Ru  Ru28  1  0.618244  0.906378  0.088827  1
  Ru  Ru29  1  0.618741  0.905010  0.212923  1
  Ru  Ru30  1  0.619939  0.904213  0.337237  1
  Ru  Ru31  1  0.622069  0.903949  0.459977  1
  Ru  Ru32  1  0.475379  0.618244  0.088827  1
  Ru  Ru33  1  0.476248  0.618741  0.212923  1
  Ru  Ru34  1  0.475849  0.619939  0.337237  1
  Ru  Ru35  1  0.473982  0.622069  0.459977  1
  Ru  Ru36  1  0.333333  0.333334  0.088311  1
  Ru  Ru37  1  0.333333  0.333334  0.212865  1
  Ru  Ru38  1  0.333333  0.333334  0.336788  1
  Ru  Ru39  1  0.333333  0.333334  0.458513  1
  Ru  Ru40  1  0.190129  0.044959  0.089055  1
  Ru  Ru41  1  0.190679  0.047861  0.213222  1
  Ru  Ru42  1  0.191276  0.046892  0.337070  1
  Ru  Ru43  1  0.199247  0.037738  0.460824  1
  Ru  Ru44  1  0.044959  0.764912  0.089055  1
  Ru  Ru45  1  0.047861  0.761460  0.213222  1
  Ru  Ru46  1  0.046892  0.761834  0.337070  1
  Ru  Ru47  1  0.037738  0.763014  0.460824  1
  Ru  Ru48  1  0.906378  0.475380  0.088827  1
  Ru  Ru49  1  0.905010  0.476249  0.212923  1
  Ru  Ru50  1  0.904213  0.475850  0.337237  1
  Ru  Ru51  1  0.903949  0.473983  0.459977  1
  Ru  Ru52  1  0.764912  0.190129  0.089055  1
  Ru  Ru53  1  0.761460  0.190679  0.213222  1
  Ru  Ru54  1  0.761834  0.191276  0.337070  1
  Ru  Ru55  1  0.763014  0.199247  0.460824  1
  Ru  Ru56  1  0.622069  0.473982  0.527828  1
  Ru  Ru57  1  0.619939  0.475849  0.650568  1
  Ru  Ru58  1  0.618741  0.476248  0.774882  1
  Ru  Ru59  1  0.618244  0.475379  0.898977  1
  Ru  Ru60  1  0.333333  0.333333  0.529292  1
  Ru  Ru61  1  0.333333  0.333333  0.651017  1
  Ru  Ru62  1  0.333333  0.333333  0.774940  1
  Ru  Ru63  1  0.333333  0.333333  0.899493  1
  Ru  Ru64  1  0.037738  0.199247  0.526981  1
  Ru  Ru65  1  0.046892  0.191276  0.650735  1
  Ru  Ru66  1  0.047861  0.190679  0.774583  1
  Ru  Ru67  1  0.044959  0.190129  0.898749  1
  Ru  Ru68  1  0.763014  0.037738  0.526981  1
  Ru  Ru69  1  0.761834  0.046892  0.650735  1
  Ru  Ru70  1  0.761460  0.047861  0.774583  1
  Ru  Ru71  1  0.764912  0.044959  0.898749  1
  Ru  Ru72  1  0.473982  0.903949  0.527828  1
  Ru  Ru73  1  0.475849  0.904213  0.650568  1
  Ru  Ru74  1  0.476248  0.905010  0.774882  1
  Ru  Ru75  1  0.475379  0.906378  0.898977  1
  Ru  Ru76  1  0.199247  0.763014  0.526981  1
  Ru  Ru77  1  0.191276  0.761834  0.650735  1
  Ru  Ru78  1  0.190679  0.761460  0.774583  1
  Ru  Ru79  1  0.190129  0.764912  0.898749  1
  Ru  Ru80  1  0.903949  0.622068  0.527828  1
  Ru  Ru81  1  0.904213  0.619938  0.650568  1
  Ru  Ru82  1  0.905010  0.618740  0.774882  1
  Ru  Ru83  1  0.906378  0.618243  0.898977  1
  Ru  Ru84  1  0.666667  0.666667  0.588311  1
  Ru  Ru85  1  0.666667  0.666667  0.712865  1
  Ru  Ru86  1  0.666667  0.666667  0.836788  1
  Ru  Ru87  1  0.666667  0.666667  0.958513  1
  Ru  Ru88  1  0.381756  0.524621  0.588827  1
  Ru  Ru89  1  0.381259  0.523752  0.712923  1
  Ru  Ru90  1  0.380061  0.524151  0.837237  1
  Ru  Ru91  1  0.377931  0.526018  0.959977  1
  Ru  Ru92  1  0.093622  0.381757  0.588827  1
  Ru  Ru93  1  0.094990  0.381260  0.712923  1
  Ru  Ru94  1  0.095787  0.380062  0.837237  1
  Ru  Ru95  1  0.096051  0.377932  0.959977  1
  Ru  Ru96  1  0.809871  0.235088  0.589055  1
  Ru  Ru97  1  0.809321  0.238540  0.713222  1
  Ru  Ru98  1  0.808724  0.238166  0.837070  1
  Ru  Ru99  1  0.800753  0.236986  0.960824  1
  Ru  Ru100  1  0.524621  0.093622  0.588827  1
  Ru  Ru101  1  0.523752  0.094990  0.712923  1
  Ru  Ru102  1  0.524151  0.095787  0.837237  1
  Ru  Ru103  1  0.526018  0.096051  0.959977  1
  Ru  Ru104  1  0.235088  0.955041  0.589055  1
  Ru  Ru105  1  0.238540  0.952139  0.713222  1
  Ru  Ru106  1  0.238166  0.953108  0.837070  1
  Ru  Ru107  1  0.236986  0.962262  0.960824  1
  Ru  Ru108  1  0.955041  0.809871  0.589055  1
  Ru  Ru109  1  0.952139  0.809321  0.713222  1
  Ru  Ru110  1  0.953108  0.808724  0.837070  1
  Ru  Ru111  1  0.962262  0.800753  0.960824  1
