# generated using pymatgen
data_Li2SiO3
_symmetry_space_group_name_H-M   'P 1'
_cell_length_a   5.44000000
_cell_length_b   9.46739200
_cell_length_c   4.71962200
_cell_angle_alpha   90.00000000
_cell_angle_beta   90.00000000
_cell_angle_gamma   90.00000000
_symmetry_Int_Tables_number   1
_chemical_formula_structural   Li2SiO3
_chemical_formula_sum   'Li8 Si4 O12'
_cell_volume   243.07286292
_cell_formula_units_Z   4
loop_
 _symmetry_equiv_pos_site_id
 _symmetry_equiv_pos_as_xyz
  1  'x, y, z'
loop_
 _atom_site_type_symbol
 _atom_site_label
 _atom_site_symmetry_multiplicity
 _atom_site_fract_x
 _atom_site_fract_y
 _atom_site_fract_z
 _atom_site_occupancy
  Li  Li0  1  0.34423200  0.17376700  0.99429900  1
  Li  Li1  1  0.15576800  0.32623300  0.49429900  1
  Li  Li2  1  0.65576800  0.17376700  0.49429900  1
  Li  Li3  1  0.84423200  0.32623300  0.99429900  1
  Li  Li4  1  0.84423200  0.67376700  0.99429900  1
  Li  Li5  1  0.65576800  0.82623300  0.49429900  1
  Li  Li6  1  0.15576800  0.67376700  0.49429900  1
  Li  Li7  1  0.34423200  0.82623300  0.99429900  1
  Si  Si8  1  0.17172300  0.00000000  0.49953700  1
  Si  Si9  1  0.82827700  0.00000000  0.99953700  1
  Si  Si10  1  0.67172300  0.50000000  0.49953700  1
  Si  Si11  1  0.32827700  0.50000000  0.99953700  1
  O  O12  1  0.11478600  0.00000000  0.14541500  1
  O  O13  1  0.80939750  0.35482350  0.58082600  1
  O  O14  1  0.30939750  0.14517650  0.58082600  1
  O  O15  1  0.88521400  0.00000000  0.64541500  1
  O  O16  1  0.19060250  0.35482350  0.08082600  1
  O  O17  1  0.69060250  0.14517650  0.08082600  1
  O  O18  1  0.61478600  0.50000000  0.14541500  1
  O  O19  1  0.30939750  0.85482350  0.58082600  1
  O  O20  1  0.80939750  0.64517650  0.58082600  1
  O  O21  1  0.38521400  0.50000000  0.64541500  1
  O  O22  1  0.69060250  0.85482350  0.08082600  1
  O  O23  1  0.19060250  0.64517650  0.08082600  1
