# generated using pymatgen
data_Li2SnO3
_symmetry_space_group_name_H-M   'P 1'
_cell_length_a   5.35794600
_cell_length_b   9.30895200
_cell_length_c   10.15341363
_cell_angle_alpha   90.00000000
_cell_angle_beta   100.35196818
_cell_angle_gamma   90.00000000
_symmetry_Int_Tables_number   1
_chemical_formula_structural   Li2SnO3
_chemical_formula_sum   'Li16 Sn8 O24'
_cell_volume   498.17713162
_cell_formula_units_Z   8
loop_
 _symmetry_equiv_pos_site_id
 _symmetry_equiv_pos_as_xyz
  1  'x, y, z'
loop_
 _atom_site_type_symbol
 _atom_site_label
 _atom_site_symmetry_multiplicity
 _atom_site_fract_x
 _atom_site_fract_y
 _atom_site_fract_z
 _atom_site_occupancy
  Li  Li0  1  0.73724550  0.57840050  0.99909900  1
  Li  Li1  1  0.26275450  0.57840050  0.50090100  1
  Li  Li2  1  0.76275450  0.92159950  0.00090100  1
  Li  Li3  1  0.23724550  0.92159950  0.49909900  1
  Li  Li4  1  0.75000000  0.75000000  0.50000000  1
  Li  Li5  1  0.25000000  0.75000000  0.00000000  1
  Li  Li6  1  0.50000000  0.58486500  0.25000000  1
  Li  Li7  1  0.00000000  0.91513500  0.75000000  1
  Li  Li8  1  0.23724550  0.07840050  0.99909900  1
  Li  Li9  1  0.76275450  0.07840050  0.50090100  1
  Li  Li10  1  0.26275450  0.42159950  0.00090100  1
  Li  Li11  1  0.73724550  0.42159950  0.49909900  1
  Li  Li12  1  0.25000000  0.25000000  0.50000000  1
  Li  Li13  1  0.75000000  0.25000000  0.00000000  1
  Li  Li14  1  0.00000000  0.08486500  0.25000000  1
  Li  Li15  1  0.50000000  0.41513500  0.75000000  1
  Sn  Sn16  1  0.00000000  0.58281600  0.75000000  1
  Sn  Sn17  1  0.50000000  0.75025400  0.75000000  1
  Sn  Sn18  1  0.00000000  0.74974600  0.25000000  1
  Sn  Sn19  1  0.50000000  0.91718400  0.25000000  1
  Sn  Sn20  1  0.50000000  0.08281600  0.75000000  1
  Sn  Sn21  1  0.00000000  0.25025400  0.75000000  1
  Sn  Sn22  1  0.50000000  0.24974600  0.25000000  1
  Sn  Sn23  1  0.00000000  0.41718400  0.25000000  1
  O  O24  1  0.63447650  0.59260450  0.63030200  1
  O  O25  1  0.63613400  0.75979100  0.13299100  1
  O  O26  1  0.36552350  0.59260450  0.86969800  1
  O  O27  1  0.86552350  0.90739550  0.36969800  1
  O  O28  1  0.11009150  0.58314050  0.13294900  1
  O  O29  1  0.36386600  0.75979100  0.36700900  1
  O  O30  1  0.86386600  0.74020900  0.86700900  1
  O  O31  1  0.13613400  0.74020900  0.63299100  1
  O  O32  1  0.61009150  0.91685950  0.63294900  1
  O  O33  1  0.88990850  0.58314050  0.36705100  1
  O  O34  1  0.38990850  0.91685950  0.86705100  1
  O  O35  1  0.13447650  0.90739550  0.13030200  1
  O  O36  1  0.13447650  0.09260450  0.63030200  1
  O  O37  1  0.13613400  0.25979100  0.13299100  1
  O  O38  1  0.86552350  0.09260450  0.86969800  1
  O  O39  1  0.36552350  0.40739550  0.36969800  1
  O  O40  1  0.61009150  0.08314050  0.13294900  1
  O  O41  1  0.86386600  0.25979100  0.36700900  1
  O  O42  1  0.36386600  0.24020900  0.86700900  1
  O  O43  1  0.63613400  0.24020900  0.63299100  1
  O  O44  1  0.11009150  0.41685950  0.63294900  1
  O  O45  1  0.38990850  0.08314050  0.36705100  1
  O  O46  1  0.88990850  0.41685950  0.86705100  1
  O  O47  1  0.63447650  0.40739550  0.13030200  1
