# generated using pymatgen
data_Ca
_symmetry_space_group_name_H-M   'P 1'
_cell_length_a   3.89517000
_cell_length_b   3.89516985
_cell_length_c   51.49504900
_cell_angle_alpha   90.00000000
_cell_angle_beta   90.00000000
_cell_angle_gamma   120.00000127
_symmetry_Int_Tables_number   1
_chemical_formula_structural   Ca
_chemical_formula_sum   Ca8
_cell_volume   676.62636876
_cell_formula_units_Z   8
loop_
 _symmetry_equiv_pos_site_id
 _symmetry_equiv_pos_as_xyz
  1  'x, y, z'
loop_
 _atom_site_type_symbol
 _atom_site_label
 _atom_site_symmetry_multiplicity
 _atom_site_fract_x
 _atom_site_fract_y
 _atom_site_fract_z
 _atom_site_occupancy
  Ca  Ca1  1  0.333333  0.666667  0.282180  1
  Ca  Ca2  1  0.666667  0.333333  0.343007  1
  Ca  Ca3  1  0.333333  0.666667  0.405843  1
  Ca  Ca4  1  0.666667  0.333333  0.468515  1
  Ca  Ca5  1  0.333333  0.666667  0.531485  1
  Ca  Ca6  1  0.666667  0.333333  0.594157  1
  Ca  Ca7  1  0.333333  0.666667  0.656993  1
  Ca  Ca8  1  0.666667  0.333333  0.717820  1
