# generated using pymatgen
data_Ca
_symmetry_space_group_name_H-M   'P 1'
_cell_length_a   3.90789300
_cell_length_b   3.90789308
_cell_length_c   76.54655200
_cell_angle_alpha   90.00000000
_cell_angle_beta   90.00000000
_cell_angle_gamma   119.99999082
_symmetry_Int_Tables_number   1
_chemical_formula_structural   Ca
_chemical_formula_sum   Ca24
_cell_volume   1012.37553681
_cell_formula_units_Z   24
loop_
 _symmetry_equiv_pos_site_id
 _symmetry_equiv_pos_as_xyz
  1  'x, y, z'
loop_
 _atom_site_type_symbol
 _atom_site_label
 _atom_site_symmetry_multiplicity
 _atom_site_fract_x
 _atom_site_fract_y
 _atom_site_fract_z
 _atom_site_occupancy
  Ca  Ca0  1  0.000000  0.000000  0.000000  1
  Ca  Ca1  1  0.000000  0.000000  0.124967  1
  Ca  Ca2  1  0.000000  0.000000  0.250000  1
  Ca  Ca3  1  0.000000  0.000000  0.375033  1
  Ca  Ca4  1  0.666667  0.333333  0.041820  1
  Ca  Ca5  1  0.666667  0.333333  0.166562  1
  Ca  Ca6  1  0.666667  0.333333  0.291781  1
  Ca  Ca7  1  0.666667  0.333333  0.416565  1
  Ca  Ca8  1  0.333333  0.666667  0.083435  1
  Ca  Ca9  1  0.333333  0.666667  0.208219  1
  Ca  Ca10  1  0.333333  0.666667  0.333438  1
  Ca  Ca11  1  0.333333  0.666667  0.458180  1
  Ca  Ca12  1  0.000000  0.000000  0.500000  1
  Ca  Ca13  1  0.000000  0.000000  0.624967  1
  Ca  Ca14  1  0.000000  0.000000  0.750000  1
  Ca  Ca15  1  0.000000  0.000000  0.875033  1
  Ca  Ca16  1  0.333333  0.666667  0.541820  1
  Ca  Ca17  1  0.333333  0.666667  0.666562  1
  Ca  Ca18  1  0.333333  0.666667  0.791781  1
  Ca  Ca19  1  0.333333  0.666667  0.916565  1
  Ca  Ca20  1  0.666667  0.333333  0.583435  1
  Ca  Ca21  1  0.666667  0.333333  0.708219  1
  Ca  Ca22  1  0.666667  0.333333  0.833438  1
  Ca  Ca23  1  0.666667  0.333333  0.958180  1
