# generated using pymatgen
data_Ru
_symmetry_space_group_name_H-M   'P 1'
_cell_length_a   2.70442464
_cell_length_b   2.70442464
_cell_length_c   26.50308628
_cell_angle_alpha   90.00000000
_cell_angle_beta   90.00000000
_cell_angle_gamma   120.00000000
_symmetry_Int_Tables_number   1
_chemical_formula_structural   Ru
_chemical_formula_sum   Ru6
_cell_volume   167.87145300
_cell_formula_units_Z   6
loop_
 _symmetry_equiv_pos_site_id
 _symmetry_equiv_pos_as_xyz
  1  'x, y, z'
loop_
 _atom_site_type_symbol
 _atom_site_label
 _atom_site_symmetry_multiplicity
 _atom_site_fract_x
 _atom_site_fract_y
 _atom_site_fract_z
 _atom_site_occupancy
  Ru  Ru1  1  0.333334  0.666668  0.375441  1
  Ru  Ru2  1  0.666666  0.333332  0.296904  1
  Ru  Ru3  1  0.666666  0.333332  0.456901  1
  Ru  Ru4  1  0.333334  0.666668  0.624559  1
  Ru  Ru5  1  0.000000  0.000000  0.543099  1
  Ru  Ru6  1  0.000000  0.000000  0.703096  1
