# generated using pymatgen
data_Ru
_symmetry_space_group_name_H-M   'P 1'
_cell_length_a   2.73111300
_cell_length_b   2.73111304
_cell_length_c   34.49421800
_cell_angle_alpha   90.00000000
_cell_angle_beta   90.00000000
_cell_angle_gamma   120.00001159
_symmetry_Int_Tables_number   1
_chemical_formula_structural   Ru
_chemical_formula_sum   Ru8
_cell_volume   222.82105726
_cell_formula_units_Z   8
loop_
 _symmetry_equiv_pos_site_id
 _symmetry_equiv_pos_as_xyz
  1  'x, y, z'
loop_
 _atom_site_type_symbol
 _atom_site_label
 _atom_site_symmetry_multiplicity
 _atom_site_fract_x
 _atom_site_fract_y
 _atom_site_fract_z
 _atom_site_occupancy
  Ru  Ru1  1  0.333333  0.666667  0.283288  1
  Ru  Ru2  1  0.666667  0.333333  0.343488  1
  Ru  Ru3  1  0.333333  0.666667  0.406136  1
  Ru  Ru4  1  0.666667  0.333333  0.468695  1
  Ru  Ru5  1  0.333333  0.666667  0.531305  1
  Ru  Ru6  1  0.666667  0.333333  0.593864  1
  Ru  Ru7  1  0.333333  0.666667  0.656512  1
  Ru  Ru8  1  0.666667  0.333333  0.716712  1
