# generated using pymatgen
data_Er
_symmetry_space_group_name_H-M   'P 1'
_cell_length_a   9.44253000
_cell_length_b   9.44253162
_cell_length_c   44.92836600
_cell_angle_alpha   90.00000000
_cell_angle_beta   90.00000000
_cell_angle_gamma   59.99998467
_symmetry_Int_Tables_number   1
_chemical_formula_structural   Er
_chemical_formula_sum   Er112
_cell_volume   3469.18939384
_cell_formula_units_Z   112
loop_
 _symmetry_equiv_pos_site_id
 _symmetry_equiv_pos_as_xyz
  1  'x, y, z'
loop_
 _atom_site_type_symbol
 _atom_site_label
 _atom_site_symmetry_multiplicity
 _atom_site_fract_x
 _atom_site_fract_y
 _atom_site_fract_z
 _atom_site_occupancy
  Er  Er0  1  0.666667  0.666666  0.029723  1
  Er  Er1  1  0.666667  0.666666  0.150928  1
  Er  Er2  1  0.666667  0.666666  0.274781  1
  Er  Er3  1  0.666667  0.666666  0.398947  1
  Er  Er4  1  0.532291  0.372970  0.026699  1
  Er  Er5  1  0.524316  0.380069  0.151132  1
  Er  Er6  1  0.523707  0.380960  0.274782  1
  Er  Er7  1  0.524092  0.382830  0.398438  1
  Er  Er8  1  0.372970  0.094740  0.026699  1
  Er  Er9  1  0.380069  0.095616  0.151132  1
  Er  Er10  1  0.380960  0.095332  0.274782  1
  Er  Er11  1  0.382830  0.093077  0.398438  1
  Er  Er12  1  0.237149  0.798922  0.026733  1
  Er  Er13  1  0.238165  0.809059  0.151151  1
  Er  Er14  1  0.238019  0.809512  0.274831  1
  Er  Er15  1  0.235383  0.807288  0.399072  1
  Er  Er16  1  0.094740  0.532290  0.026699  1
  Er  Er17  1  0.095616  0.524315  0.151132  1
  Er  Er18  1  0.095332  0.523706  0.274782  1
  Er  Er19  1  0.093077  0.524091  0.398438  1
  Er  Er20  1  0.963929  0.237149  0.026733  1
  Er  Er21  1  0.952775  0.238165  0.151151  1
  Er  Er22  1  0.952470  0.238019  0.274831  1
  Er  Er23  1  0.957329  0.235383  0.399072  1
  Er  Er24  1  0.798922  0.963929  0.026733  1
  Er  Er25  1  0.809059  0.952775  0.151151  1
  Er  Er26  1  0.809512  0.952470  0.274831  1
  Er  Er27  1  0.807288  0.957329  0.399072  1
  Er  Er28  1  0.617170  0.906923  0.089366  1
  Er  Er29  1  0.619040  0.904668  0.213023  1
  Er  Er30  1  0.619931  0.904384  0.336673  1
  Er  Er31  1  0.627030  0.905260  0.461106  1
  Er  Er32  1  0.475908  0.617170  0.089366  1
  Er  Er33  1  0.476293  0.619040  0.213023  1
  Er  Er34  1  0.475684  0.619931  0.336673  1
  Er  Er35  1  0.467709  0.627030  0.461106  1
  Er  Er36  1  0.333333  0.333334  0.088857  1
  Er  Er37  1  0.333333  0.333334  0.213024  1
  Er  Er38  1  0.333333  0.333334  0.336877  1
  Er  Er39  1  0.333333  0.333334  0.458082  1
  Er  Er40  1  0.192712  0.042671  0.088732  1
  Er  Er41  1  0.190488  0.047530  0.212974  1
  Er  Er42  1  0.190941  0.047225  0.336654  1
  Er  Er43  1  0.201078  0.036071  0.461072  1
  Er  Er44  1  0.042671  0.764617  0.088732  1
  Er  Er45  1  0.047530  0.761981  0.212974  1
  Er  Er46  1  0.047225  0.761835  0.336654  1
  Er  Er47  1  0.036071  0.762851  0.461072  1
  Er  Er48  1  0.906923  0.475909  0.089366  1
  Er  Er49  1  0.904668  0.476294  0.213023  1
  Er  Er50  1  0.904384  0.475685  0.336673  1
  Er  Er51  1  0.905260  0.467710  0.461106  1
  Er  Er52  1  0.764617  0.192712  0.088732  1
  Er  Er53  1  0.761981  0.190488  0.212974  1
  Er  Er54  1  0.761835  0.190941  0.336654  1
  Er  Er55  1  0.762851  0.201078  0.461072  1
  Er  Er56  1  0.627030  0.467709  0.526699  1
  Er  Er57  1  0.619931  0.475684  0.651132  1
  Er  Er58  1  0.619040  0.476293  0.774782  1
  Er  Er59  1  0.617170  0.475908  0.898438  1
  Er  Er60  1  0.333333  0.333333  0.529723  1
  Er  Er61  1  0.333333  0.333333  0.650928  1
  Er  Er62  1  0.333333  0.333333  0.774781  1
  Er  Er63  1  0.333333  0.333333  0.898947  1
  Er  Er64  1  0.036071  0.201078  0.526733  1
  Er  Er65  1  0.047225  0.190941  0.651151  1
  Er  Er66  1  0.047530  0.190488  0.774831  1
  Er  Er67  1  0.042671  0.192712  0.899072  1
  Er  Er68  1  0.762851  0.036071  0.526733  1
  Er  Er69  1  0.761835  0.047225  0.651151  1
  Er  Er70  1  0.761981  0.047530  0.774831  1
  Er  Er71  1  0.764617  0.042671  0.899072  1
  Er  Er72  1  0.467709  0.905260  0.526699  1
  Er  Er73  1  0.475684  0.904384  0.651132  1
  Er  Er74  1  0.476293  0.904668  0.774782  1
  Er  Er75  1  0.475908  0.906923  0.898438  1
  Er  Er76  1  0.201078  0.762851  0.526733  1
  Er  Er77  1  0.190941  0.761835  0.651151  1
  Er  Er78  1  0.190488  0.761981  0.774831  1
  Er  Er79  1  0.192712  0.764617  0.899072  1
  Er  Er80  1  0.905260  0.627029  0.526699  1
  Er  Er81  1  0.904384  0.619930  0.651132  1
  Er  Er82  1  0.904668  0.619039  0.774782  1
  Er  Er83  1  0.906923  0.617169  0.898438  1
  Er  Er84  1  0.666667  0.666667  0.588857  1
  Er  Er85  1  0.666667  0.666667  0.713024  1
  Er  Er86  1  0.666667  0.666667  0.836877  1
  Er  Er87  1  0.666667  0.666667  0.958082  1
  Er  Er88  1  0.382830  0.524092  0.589366  1
  Er  Er89  1  0.380960  0.523707  0.713023  1
  Er  Er90  1  0.380069  0.524316  0.836673  1
  Er  Er91  1  0.372970  0.532291  0.961106  1
  Er  Er92  1  0.093077  0.382831  0.589366  1
  Er  Er93  1  0.095332  0.380961  0.713023  1
  Er  Er94  1  0.095616  0.380070  0.836673  1
  Er  Er95  1  0.094740  0.372971  0.961106  1
  Er  Er96  1  0.807288  0.235383  0.588732  1
  Er  Er97  1  0.809512  0.238019  0.712974  1
  Er  Er98  1  0.809059  0.238165  0.836654  1
  Er  Er99  1  0.798922  0.237149  0.961072  1
  Er  Er100  1  0.524092  0.093077  0.589366  1
  Er  Er101  1  0.523707  0.095332  0.713023  1
  Er  Er102  1  0.524316  0.095616  0.836673  1
  Er  Er103  1  0.532291  0.094740  0.961106  1
  Er  Er104  1  0.235383  0.957329  0.588732  1
  Er  Er105  1  0.238019  0.952470  0.712974  1
  Er  Er106  1  0.238165  0.952775  0.836654  1
  Er  Er107  1  0.237149  0.963929  0.961072  1
  Er  Er108  1  0.957329  0.807288  0.588732  1
  Er  Er109  1  0.952470  0.809512  0.712974  1
  Er  Er110  1  0.952775  0.809059  0.836654  1
  Er  Er111  1  0.963929  0.798922  0.961072  1
