# generated using pymatgen
data_Er
_symmetry_space_group_name_H-M   'P 1'
_cell_length_a   3.58940036
_cell_length_b   5.55351600
_cell_length_c   28.71520200
_cell_angle_alpha   90.00000000
_cell_angle_beta   60.00000332
_cell_angle_gamma   90.00000000
_symmetry_Int_Tables_number   1
_chemical_formula_structural   Er
_chemical_formula_sum   Er8
_cell_volume   495.71544611
_cell_formula_units_Z   8
loop_
 _symmetry_equiv_pos_site_id
 _symmetry_equiv_pos_as_xyz
  1  'x, y, z'
loop_
 _atom_site_type_symbol
 _atom_site_label
 _atom_site_symmetry_multiplicity
 _atom_site_fract_x
 _atom_site_fract_y
 _atom_site_fract_z
 _atom_site_occupancy
  Er  Er1  1  0.318447  0.250000  0.045389  1
  Er  Er2  1  0.645145  0.750000  0.088713  1
  Er  Er3  1  0.342294  0.250000  0.164427  1
  Er  Er4  1  0.669847  0.750000  0.207538  1
  Er  Er5  1  0.330153  0.250000  0.292462  1
  Er  Er6  1  0.657706  0.750000  0.335573  1
  Er  Er7  1  0.354855  0.250000  0.411287  1
  Er  Er8  1  0.681553  0.750000  0.454611  1
