data_B2\beta12 
_audit_creation_date              2020-06-28
_audit_creation_method            'Materials Studio'
_symmetry_space_group_name_H-M    'P1'
_symmetry_Int_Tables_number       1
_symmetry_cell_setting            triclinic
loop_
_symmetry_equiv_pos_as_xyz
  x,y,z
_cell_length_a                    5.1176
_cell_length_b                    2.9155
_cell_length_c                    25.0000
_cell_angle_alpha                 90.0000
_cell_angle_beta                  90.0000
_cell_angle_gamma                 90.0000
loop_
_atom_site_label
_atom_site_type_symbol
_atom_site_fract_x
_atom_site_fract_y
_atom_site_fract_z
_atom_site_U_iso_or_equiv
_atom_site_adp_type
_atom_site_occupancy
B1     B     0.32745   0.50000   0.50000   0.00000  Uiso   1.00
B2     B     0.67255   0.50000   0.50000   0.00000  Uiso   1.00
B3     B     0.16184   0.00000   0.50000   0.00000  Uiso   1.00
B4     B     0.83816   0.00000   0.50000   0.00000  Uiso   1.00
B5     B     0.50000   0.00000   0.50000   0.00000  Uiso   1.00
